[TITLE]								
								
								
[JUNCTIONS]								
;ID              	Elev        	Demand      	Pattern         					
 node_0001       	27.965236	0		;				
 node_0002       	48.2573	0		;				
 node_0003       	51.559723	0		;				
 node_0004       	44.545853	0		;				
 node_0005       	39.001898	0		;				
 node_0006       	39.51	0		;				
 node_0007       	42.604299	0		;				
 node_0008       	47.437245	0		;				
 node_0009       	18.407785	0		;				
 node_0010       	15.444212	0		;				
 node_0011       	54.171954	0		;				
 node_0012       	46.613206	0		;				
 node_0013       	52.07827	0		;				
 node_0014       	46.822226	0		;				
 node_0015       	51.305197	0		;				
 node_0016       	49.205102	0		;				
 node_0017       	49.954792	0		;				
 node_0018       	51.242215	0		;				
 node_0019       	41.229555	0		;				
 node_0020       	42.638169	0		;				
 node_0021       	42.30857	0		;				
 node_0022       	41.51386	0		;				
 node_0023       	24.862866	0		;				
 node_0024       	15.624059	0		;				
 node_0025       	15.491523	0		;				
 node_0026       	24.845056	0		;				
 node_0027       	24.852542	0		;				
 node_0028       	39.986989	0		;				
 node_0029       	65.652533	0		;				
 node_0030       	65.370665	0		;				
 node_0031       	66.080524	0		;				
 node_0032       	60.209334	0		;				
 node_0033       	60.479176	0		;				
 node_0034       	66.131125	0		;				
 node_0035       	75.88879	0		;				
 node_0036       	77.055856	0		;				
 node_0037       	60.498025	0		;				
 node_0038       	62.161263	0		;				
 node_0039       	61.339364	0		;				
 node_0040       	60.495963	0		;				
 node_0041       	62.888644	0		;				
 node_0042       	57.146566	0		;				
 node_0043       	58.227954	0		;				
 node_0044       	58.602572	0		;				
 node_0045       	53.597238	0		;				
 node_0046       	58.270687	0		;				
 node_0047       	57.610183	0		;				
 node_0048       	61.61	0		;				
 node_0049       	62.871838	0		;				
 node_0050       	64.68317	0		;				
 node_0051       	64.397147	0		;				
 node_0052       	64.876175	0		;				
 node_0053       	64.850954	0		;				
 node_0054       	52.98	0		;				
 node_0055       	56.76	0		;				
 node_0056       	48.179567	0		;				
 node_0057       	60.252123	0		;				
 node_0058       	59.775641	0		;				
 node_0059       	56.470534	0		;				
 node_0060       	54.084005	0		;				
 node_0061       	55.557185	0		;				
 node_0062       	54.544316	0		;				
 node_0063       	54.432323	0		;				
 node_0064       	54.45532	0		;				
 node_0065       	54.172261	0		;				
 node_0066       	54.179102	0		;				
 node_0067       	54.206049	0		;				
 node_0068       	54.159509	0		;				
 node_0069       	54.159611	0		;				
 node_0070       	49.880939	0		;				
 node_0071       	44.519714	0		;				
 node_0072       	42.886984	0		;				
 node_0073       	42.405297	0		;				
 node_0074       	44.159507	0		;				
 node_0075       	43.412316	0		;				
 node_0076       	45.139019	0		;				
 node_0077       	42.552615	0		;				
 node_0078       	44.508096	0		;				
 node_0079       	45.180859	0		;				
 node_0080       	45.285168	0		;				
 node_0081       	45.210055	0		;				
 node_0082       	44.911325	0		;				
 node_0083       	45.162553	0		;				
 node_0084       	45.179744	0		;				
 node_0085       	44.334901	0		;				
 node_0086       	44.810154	0		;				
 node_0087       	44.406762	0		;				
 node_0088       	42.896425	0		;				
 node_0089       	43.507262	0		;				
 node_0090       	66.148406	0		;				
 node_0091       	66.142056	0		;				
 node_0092       	63.449902	0		;				
 node_0093       	65.673344	0		;				
 node_0094       	66.168492	0		;				
 node_0095       	66.169113	0		;				
 node_0096       	67.076808	0		;				
 node_0097       	69.102283	0		;				
 node_0098       	69.100564	0		;				
 node_0099       	69.105985	0		;				
 node_0100       	70.573627	0		;				
 node_0101       	66.45	0		;				
 node_0102       	68.146867	0		;				
 node_0103       	72.698334	0		;				
 node_0104       	72.586727	0		;				
 node_0105       	71.454688	0		;				
 node_0106       	74.624795	0		;				
 node_0107       	76.139675	0		;				
 node_0108       	76.706597	0		;				
 node_0109       	74.981293	0		;				
 node_0110       	75.472234	0		;				
 node_0111       	72.768993	0		;				
 node_0112       	73.115356	0		;				
 node_0113       	73.580072	0		;				
 node_0114       	66.147378	0		;				
 node_0115       	66.148009	0		;				
 node_0116       	56.733339	0		;				
 node_0117       	60.282231	0		;				
 node_0118       	60.099755	0		;				
 node_0119       	57.394396	0		;				
 node_0120       	58.254639	0		;				
 node_0121       	58.824272	0		;				
 node_0122       	59.833311	0		;				
 node_0123       	63.760215	0		;				
 node_0124       	75.511177	0		;				
 node_0125       	60.047581	0		;				
 node_0126       	55.865195	0		;				
 node_0127       	58.14058	0		;				
 node_0128       	57.623499	0		;				
 node_0129       	54.609864	0		;				
 node_0130       	54.957472	0		;				
 node_0131       	60.460504	0		;				
 node_0132       	57.335776	0		;				
 node_0133       	55.701527	0		;				
 node_0134       	59.991981	0		;				
 node_0135       	59.535368	0		;				
 node_0136       	59.634023	0		;				
 node_0137       	60.998275	0		;				
 node_0138       	60.908467	0		;				
 node_0139       	60.579501	0		;				
 node_0140       	56.991076	0		;				
 node_0141       	56.965719	0		;				
 node_0142       	52.536542	0		;				
 node_0143       	52.680429	0		;				
 node_0144       	52.468161	0		;				
 node_0145       	45.958939	0		;				
 node_0146       	46.739813	0		;				
 node_0147       	43.380909	0		;				
 node_0148       	45.500229	0		;				
 node_0149       	44.809588	0		;				
 node_0150       	46.048533	0		;				
 node_0151       	45.229945	0		;				
 node_0152       	69.450076	0		;				
 node_0153       	75.147959	0		;				
 node_0154       	75.11	0		;				
 node_0155       	73.929742	0		;				
 node_0156       	74.327932	0		;				
 node_0157       	71.038249	0		;				
 node_0158       	69.236619	0		;				
 node_0159       	68.473374	0		;				
 node_0160       	71.88	0		;				
 node_0161       	71.52103	0		;				
 node_0162       	74.5	0		;				
 node_0163       	76.27	0		;				
 node_0164       	86.650652	0		;				
 node_0165       	82.867988	0		;				
 node_0166       	81.173619	0		;				
 node_0167       	84.31	0		;				
 node_0168       	77.181758	0		;				
 node_0169       	77.355188	0		;				
 node_0170       	77.036947	0		;				
 node_0171       	77.059031	0		;				
 node_0172       	77.08641	0		;				
 node_0173       	77.096463	0		;				
 node_0174       	77.106314	0		;				
 node_0175       	77.097825	0		;				
 node_0176       	68.734949	0		;				
 node_0177       	68.533876	0		;				
 node_0178       	53.731072	0		;				
 node_0179       	56.277871	0		;				
 node_0180       	57.025992	0		;				
 node_0181       	56.279682	0		;				
 node_0182       	60.912646	0		;				
 node_0183       	62.121944	0		;				
 node_0184       	54.403447	0		;				
 node_0185       	86.268313	0		;				
 node_0186       	86.694636	0		;				
 node_0187       	83.748171	0		;				
 node_0188       	87.13	0		;				
 node_0189       	74.249784	0		;				
 node_0190       	71.88	0		;				
 node_0191       	74.85486	0		;				
 node_0192       	73.794885	0		;				
 node_0193       	78.033057	0		;				
 node_0194       	76.809025	0		;				
 node_0195       	81.446319	0		;				
 node_0196       	81.610456	0		;				
 node_0197       	84.791425	0		;				
 node_0198       	65.467815	0		;				
 node_0199       	62.56563	0		;				
 node_0200       	62.566104	0		;				
 node_0201       	65.449757	0		;				
 node_0202       	72.653715	0		;				
 node_0203       	72.694788	0		;				
 node_0204       	67.330905	0		;				
 node_0205       	68.463849	0		;				
 node_0206       	70.44285	0		;				
 node_0207       	70.523663	0		;				
 node_0208       	68.911549	0		;				
 node_0209       	68.849172	0		;				
 node_0210       	68.673187	0		;				
 node_0211       	68.569631	0		;				
 node_0212       	67.886326	0		;				
 node_0213       	65.18	0		;				
 node_0214       	89.515266	0		;				
 node_0215       	87.025601	0		;				
 node_0216       	87.902773	0		;				
 node_0217       	86.317871	0		;				
 node_0218       	83.69	0		;				
 node_0219       	83.331657	0		;				
 node_0220       	77.060449	0		;				
 node_0221       	78.301332	0		;				
 node_0222       	87.187	0		;				
 node_0223       	87.006356	0		;				
 node_0224       	87.187	0		;				
 node_0225       	51.548112	0		;				
 node_0226       	41.660344	0		;				
 node_0227       	46.462348	0		;				
 node_0228       	62.423342	0		;				
 node_0229       	61.814862	0		;				
 node_0230       	60.36478	0		;				
 node_0231       	60.411871	0		;				
 node_0232       	59.192009	0		;				
 node_0233       	53.253653	0		;				
 node_0234       	49.7775	0		;				
 node_0235       	48.712527	0		;				
 node_0236       	48.547095	0		;				
 node_0237       	54.150875	0		;				
 node_0238       	54.134238	0		;				
 node_0239       	45.346466	0		;				
 node_0240       	44.455416	0		;				
 node_0241       	81.793074	0		;				
 node_0242       	79.728984	0		;				
 node_0243       	75.851416	0		;				
 node_0244       	77.845117	0		;				
 node_0245       	86.33	0		;				
 node_0246       	78.94	0		;				
 node_0247       	65.578522	0		;				
 node_0248       	57.831969	0		;				
 node_0249       	61.248613	0		;				
 node_0250       	60.520629	0		;				
 node_0251       	57.36	0		;				
 node_0252       	61.390359	0		;				
 node_0253       	63.853366	0		;				
 node_0254       	70.984801	0		;				
 node_0255       	81.109302	0		;				
 node_0256       	83.833989	0		;				
 node_0257       	81.31	0		;				
 node_0258       	81.525361	0		;				
 node_0259       	85.844545	0		;				
 node_0260       	89.034791	0		;				
 node_0261       	73.689919	0		;				
 node_0262       	78.818507	0		;				
 node_0263       	75.799718	0		;				
 node_0264       	81.60439	0		;				
 node_0265       	81.480238	0		;				
 node_0266       	81.022303	0		;				
 node_0267       	80.75	0		;				
 node_0268       	79.64	0		;				
 node_0269       	75.419338	0		;				
 node_0270       	75.907657	0		;				
 node_0271       	74.368578	0		;				
 node_0272       	76.114073	0		;				
 node_0273       	63.689592	0		;				
 node_0274       	63.705	0		;				
 node_0275       	65.490373	0		;				
 node_0276       	71.273516	0		;				
 node_0277       	68.18	0		;				
 node_0278       	68.477603	0		;				
 node_0279       	74.04	0		;				
 node_0280       	68.672982	0		;				
 node_0281       	69.953733	0		;				
 node_0282       	72.918685	0		;				
 node_0283       	42.259709	0		;				
 node_0284       	44.11	0		;				
 node_0285       	36.262616	0		;				
 node_0286       	41.771256	0		;				
 node_0287       	56.969361	0		;				
 node_0288       	56.92029	0		;				
 node_0289       	58.448088	0		;				
 node_0290       	62.81	0		;				
 node_0291       	66.081545	0		;				
 node_0292       	42.249713	0		;				
 node_0293       	24.94329	0		;				
 node_0294       	24.913064	0		;				
 node_0295       	24.878676	0		;				
 node_0296       	24.870931	0		;				
 node_0297       	58.298463	0		;				
 node_0298       	50.556602	0		;				
 node_0299       	54.432578	0		;				
 node_0300       	54.519856	0		;				
 node_0301       	54.485301	0		;				
 node_0302       	55.14112	0		;				
 node_0303       	60.479395	0		;				
 node_0304       	73.299802	0		;				
 node_0305       	73.524657	0		;				
 node_0306       	47.168446	0		;				
 node_0307       	90.031141	0		;				
 node_0308       	42.718187	0		;				
 node_0309       	75.043703	0		;				
 node_0310       	58.3361	0		;				
 node_0311       	57.603842	0		;				
 node_0312       	83.398285	0		;				
 node_0313       	86.778275	0		;				
 node_0314       	89.269808	0		;				
 node_0315       	89.535951	0		;				
 node_0316       	77.087364	0		;				
 node_0317       	72.594965	0		;				
 node_0318       	84.044937	0		;				
 node_0319       	68.384788	0		;				
 node_0320       	49.88862	0		;				
 node_0321       	73.458066	0		;				
 node_0322       	54.08127	0		;				
 node_0323       	24.833353	0		;				
 node_0324       	24.906652	0		;				
 node_0325       	46.463472	0		;				
 node_0326       	78.986919	0		;				
 node_0327       	76.047353	0		;				
 node_0328       	63.584795	0		;				
 node_0329       	75.122832	0		;				
 node_0330       	65.31	0		;				
 node_0331       	66.223326	0		;				
 node_0332       	66.277463	0		;				
 node_0333       	81.481346	0		;				
 node_0334       	81.529076	0		;				
 node_0335       	53.434956	0		;				
 node_0336       	55.664594	0		;				
 node_0337       	55.4205	0		;				
 node_0338       	84.467415	0		;				
 node_0339       	69.518058	0		;				
 node_0340       	89.486137	0		;				
 node_0341       	89.500041	0		;				
 node_0342       	90.029118	0		;				
 node_0343       	58.385163	0		;				
 node_0344       	58.255383	0		;				
 node_0345       	69.645126	0		;				
 node_0346       	81.440114	0		;				
 node_0347       	76.998673	0		;				
 node_0348       	89.257096	0		;				
 node_0349       	81.590745	0		;				
 node_0350       	71.142555	0		;				
 node_0351       	68.690131	0		;				
 node_0352       	77.61734	0		;				
 node_0353       	15.484285	0		;				
 node_0354       	48.255572	0		;				
 node_0355       	52.931328	0		;				
 node_0356       	57.004102	0		;				
 node_0357       	66.174616	0		;				
 node_0358       	66.128701	0		;				
 node_0359       	66.121929	0		;				
 node_0360       	15.069807	0		;				
 node_0361       	15.219566	0		;				
 node_0362       	15.45764	0		;				
 node_0363       	56.153125	0		;				
 node_0364       	90.235261	0		;				
 node_0365       	90.067542	0		;				
 node_0366       	42.45	0		;				
 node_0367       	45.22	0		;				
 node_0368       	65.307253	0		;				
 node_0369       	65.310289	0		;				
 node_0370       	108.161469	0		;				
 node_0371       	44.545881	0		;				
 node_0372       	55.810254	0		;				
 node_0373       	64.987918	0		;				
 node_0374       	63.48	0		;				
 node_0375       	54.095182	0		;				
 node_0376       	90.108463	0		;				
 node_0377       	73.302738	0		;				
 node_0378       	71.558626	0		;				
 node_0379       	73.904919	0		;				
 node_0380       	73.979151	0		;				
 node_0381       	71.47138	0		;				
 node_0382       	82.600981	0		;				
 node_0383       	82.416284	0		;				
 node_0384       	77.571608	0		;				
 node_0385       	82.520059	0		;				
 node_0386       	81.913235	0		;				
 node_0387       	70.547949	0		;				
 node_0388       	83.953472	0		;				
 node_0389       	83.953913	0		;				
 node_0390       	84.319405	0		;				
 node_0391       	82.268977	0		;				
 node_0392       	66.059475	0		;				
 node_0393       	63.550351	0		;				
 node_0394       	72.723928	0		;				
 node_0395       	72.946165	0		;				
 node_0396       	71.659131	0		;				
 node_0397       	85.949242	0		;				
 node_0398       	72.315226	0		;				
 node_0399       	73.883754	0		;				
 node_0400       	82.250433	0		;				
 node_0401       	81.849802	0		;				
 node_0402       	84.950166	0		;				
 node_0403       	83.766623	0		;				
 node_0404       	84.953656	0		;				
 node_0405       	85.871533	0		;				
 node_0406       	82.780809	0		;				
 node_0407       	59.867804	0		;				
 node_0408       	64.977258	0		;				
 node_0409       	83.966366	0		;				
 node_0410       	71.554937	0		;				
 node_0411       	66.19	0		;				
 node_0412       	73.477545	0		;				
 node_0413       	66.19	0		;				
 node_0414       	54.558259	0		;				
 node_0415       	60.283478	0		;				
 node_0416       	60.484849	0		;				
 node_0417       	60.519551	0		;				
 node_0418       	62.752107	0		;				
 node_0419       	59.77467	0		;				
 node_0420       	56.052434	0		;				
 node_0421       	60.283639	0		;				
 node_0422       	60.296494	0		;				
 node_0423       	59.311625	0		;				
 node_0424       	59.740233	0		;				
 node_0425       	53.506549	0		;				
 node_0426       	61.92	0		;				
 node_0427       	62.520893	0		;				
 node_0428       	63.090593	0		;				
 node_0429       	60.166913	0		;				
 node_0430       	62.412439	0		;				
 node_0431       	62.118923	0		;				
 node_0432       	56.386095	0		;				
 node_0433       	57.635	0		;				
 node_0434       	68.905733	0		;				
 node_0435       	66.556953	0		;				
 node_0436       	61.039128	0		;				
 node_0437       	73.893412	0		;				
 node_0438       	66.584714	0		;				
 node_0439       	66.552835	0		;				
 node_0440       	72.056513	0		;				
 node_0441       	56.002103	0		;				
 node_0442       	65.31	0		;				
 node_0443       	67.015449	0		;				
 node_0444       	53.930892	0		;				
 node_0445       	60.310989	0		;				
 node_0446       	62.411918	0		;				
 node_0447       	57.078703	0		;				
 node_0448       	57.210604	0		;				
 node_0449       	68.799929	0		;				
 node_0450       	68.868438	0		;				
 node_0451       	72.763473	0		;				
 node_0452       	73.780335	0		;				
 node_0453       	44.11	0		;				
 node_0454       	54.047228	0		;				
 node_0455       	63.732725	0		;				
 node_0456       	76.953965	0		;				
 node_0457       	69.61	0		;				
 node_0458       	60.059186	0		;				
 node_0459       	77.004365	0		;				
 node_0460       	63.705	0		;				
 node_0461       	60.650376	0		;				
 node_0462       	61.7598	0		;				
 node_0463       	72.664017	0		;				
 node_0464       	34.914163	0		;				
 node_0465       	24.928127	0		;				
 node_0466       	46.389393	0		;				
 node_0467       	59.542684	0		;				
 node_0468       	53.757905	0		;				
 node_0469       	57.887154	0		;				
 node_0470       	57.879233	0		;				
 node_0471       	69.687093	0		;				
 node_0472       	55.394295	0		;				
 node_0473       	73.60636	0		;				
 node_0474       	73.467814	0		;				
 node_0475       	54.779744	0		;				
 node_0476       	64.245742	0		;				
 node_0477       	42.390765	0		;				
 node_0478       	53.701043	0		;				
 node_0479       	51.862307	0		;				
 node_0480       	52.203398	0		;				
 node_0481       	59.329312	0		;				
 node_0482       	59.09704	0		;				
 node_0483       	55.279443	0		;				
 node_0484       	60.187802	0		;				
 node_0485       	90.219105	0		;				
 node_0486       	89.745174	0		;				
 node_0487       	96.980112	0		;				
 node_0488       	96.965991	0		;				
 node_0489       	96.957935	0		;				
 node_0490       	96.915929	0		;				
 node_0491       	43.675023	0		;				
 node_0492       	42.625671	0		;				
 node_0493       	42.715353	0		;				
 node_0494       	42.4585	0		;				
 node_0495       	50.315041	0		;				
 node_0496       	44.628517	0		;				
 node_0497       	41.436343	0		;				
 node_0498       	58.415716	0		;				
 node_0499       	56.277743	0		;				
 node_0500       	55.02097	0		;				
 node_0501       	57.644162	0		;				
 node_0502       	60.912556	0		;				
 node_0503       	64.249413	0		;				
 node_0504       	61.255764	0		;				
 node_0505       	60.46334	0		;				
 node_0506       	56.777479	0		;				
 node_0507       	57.318545	0		;				
 node_0508       	59.994479	0		;				
 node_0509       	60.17514	0		;				
 node_0510       	61.351965	0		;				
 node_0511       	58.202588	0		;				
 node_0512       	55.179346	0		;				
 node_0513       	53.707006	0		;				
 node_0514       	54.956427	0		;				
 node_0515       	56.970424	0		;				
 node_0516       	36.159893	0		;				
 node_0517       	36.959336	0		;				
 node_0518       	50.108801	0		;				
 node_0519       	52.143224	0		;				
 node_0520       	51.450006	0		;				
 node_0521       	45.443119	0		;				
 node_0522       	44.628887	0		;				
 node_0523       	43.321575	0		;				
 node_0524       	43.626649	0		;				
 node_0525       	44.813161	0		;				
 node_0526       	47.414228	0		;				
 node_0527       	46.405996	0		;				
 node_0528       	47.027663	0		;				
 node_0529       	47.207401	0		;				
 node_0530       	45.618231	0		;				
 node_0531       	50.016653	0		;				
 node_0532       	49.704139	0		;				
 node_0533       	50.158975	0		;				
 node_0534       	24.836696	0		;				
 node_0535       	20.413496	0		;				
 node_0536       	15.638528	0		;				
 node_0537       	22.538501	0		;				
 node_0538       	55.111792	0		;				
 node_0539       	54.542841	0		;				
 node_0540       	54.505762	0		;				
 node_0541       	54.11	0		;				
 node_0542       	15.498585	0		;				
 node_0543       	15.13276	0		;				
 node_0544       	54.716855	0		;				
 node_0545       	55.371286	0		;				
 node_0546       	41.641251	0		;				
 node_0547       	43.427001	0		;				
 node_0548       	45.216455	0		;				
 node_0549       	45.169881	0		;				
 node_0550       	45.75413	0		;				
 node_0551       	45.767708	0		;				
 node_0552       	43.891926	0		;				
 node_0553       	45.956823	0		;				
 node_0554       	42.337145	0		;				
 node_0555       	43.1317	0		;				
 node_0556       	45.991873	0		;				
 node_0557       	41.06863	0		;				
 node_0558       	42.81616	0		;				
 node_0559       	65.300781	0		;				
 node_0560       	65.311166	0		;				
 node_0561       	59.496989	0		;				
 node_0562       	68.411214	0		;				
 node_0563       	68.341518	0		;				
 node_0564       	72.842012	0		;				
 node_0565       	65.79	0		;				
 node_0566       	72.103145	0		;				
 node_0567       	72.328237	0		;				
 node_0568       	72.518772	0		;				
 node_0569       	72.179528	0		;				
 node_0570       	72.676328	0		;				
 node_0571       	72.515269	0		;				
 node_0572       	78.091163	0		;				
 node_0573       	83.32	0		;				
 node_0574       	70.549597	0		;				
 node_0575       	71.254424	0		;				
 node_0576       	74.14	0		;				
 node_0577       	72.947198	0		;				
 node_0578       	72.60087	0		;				
 node_0579       	72.515066	0		;				
 node_0580       	71.497205	0		;				
 node_0581       	83.810177	0		;				
 node_0582       	73.737495	0		;				
 node_0583       	73.839251	0		;				
 node_0584       	68.186923	0		;				
 node_0585       	56.441234	0		;				
 node_0586       	60.720427	0		;				
 node_0587       	65.411584	0		;				
 node_0588       	68.895107	0		;				
 node_0589       	72.906461	0		;				
 node_0590       	71.850412	0		;				
 node_0591       	67.559354	0		;				
 node_0592       	75.759298	0		;				
 node_0593       	70.367774	0		;				
 node_0594       	73.285219	0		;				
 node_0595       	72.100449	0		;				
 node_0596       	62.862866	0		;				
 node_0597       	67.60971	0		;				
 node_0598       	69.431627	0		;				
 node_0599       	70.93	0		;				
 node_0600       	78.772149	0		;				
 node_0601       	81.492966	0		;				
 node_0602       	84.749184	0		;				
 node_0603       	84.245794	0		;				
 node_0604       	86.818393	0		;				
 node_0605       	78.093214	0		;				
 node_0606       	78.09559	0		;				
 node_0607       	73.940619	0		;				
 node_0608       	59.202096	0		;				
 node_0609       	67.774609	0		;				
 node_0610       	65.279575	0		;				
 node_0611       	65.150643	0		;				
 node_0612       	65.26195	0		;				
 node_0613       	64.975494	0		;				
 node_0614       	63.404212	0		;				
 node_0615       	71.452243	0		;				
 node_0616       	72.926351	0		;				
 node_0617       	73.196457	0		;				
 node_0618       	73.471695	0		;				
 node_0619       	69.939238	0		;				
 node_0620       	72.234416	0		;				
 node_0621       	72.385098	0		;				
 node_0622       	69.314352	0		;				
 node_0623       	69.237367	0		;				
 node_0624       	78.236441	0		;				
 node_0625       	80.75	0		;				
 node_0626       	64.930867	0		;				
 node_0627       	63.47734	0		;				
 node_0628       	48.17	0		;				
 node_0629       	52.059138	0		;				
 node_0630       	57.045135	0		;				
 node_0631       	56.185499	0		;				
 node_0632       	58.089854	0		;				
 node_0633       	58.669089	0		;				
 node_0634       	58.77205	0		;				
 node_0635       	48.571854	0		;				
 node_0636       	54.050211	0		;				
 node_0637       	57.033358	0		;				
 node_0638       	57.110629	0		;				
 node_0639       	60.031046	0		;				
 node_0640       	47.539619	0		;				
 node_0641       	57.208567	0		;				
 node_0642       	56.940484	0		;				
 node_0643       	56.939746	0		;				
 node_0644       	52.931048	0		;				
 node_0645       	52.749356	0		;				
 node_0646       	58.848975	0		;				
 node_0647       	53.483946	0		;				
 node_0648       	55.489393	0		;				
 node_0649       	50.552434	0		;				
 node_0650       	57.018714	0		;				
 node_0651       	108.194352	0		;				
 node_0652       	69.447382	0		;				
 node_0653       	81.454768	0		;				
 node_0654       	68.542548	0		;				
 node_0655       	56.852417	0		;				
 node_0656       	57.880439	0		;				
 node_0657       	56.311723	0		;				
 node_0658       	52.603975	0		;				
 node_0659       	52.23705	0		;				
 node_0660       	55.33459	0		;				
 node_0661       	51.868562	0		;				
 node_0662       	52.488048	0		;				
 node_0663       	52.241431	0		;				
 node_0664       	52.50187	0		;				
 node_0665       	56.874056	0		;				
 node_0666       	54.636179	0		;				
 node_0667       	74.416267	0		;				
 node_0668       	76.437405	0		;				
 node_0669       	75.879268	0		;				
 node_0670       	77.765016	0		;				
 node_0671       	76.872205	0		;				
 node_0672       	77.51	0		;				
 node_0673       	76.476821	0		;				
 node_0674       	76.468984	0		;				
 node_0675       	76.453835	0		;				
 node_0676       	76.290462	0		;				
 node_0677       	76.311684	0		;				
 node_0678       	73.482764	0		;				
 node_0679       	77.766989	0		;				
 node_0680       	73.899452	0		;				
 node_0681       	68.390565	0		;				
 node_0682       	68.38909	0		;				
 node_0683       	57.873024	0		;				
 node_0684       	54.600495	0		;				
 node_0685       	74.249914	0		;				
 node_0686       	54.040125	0		;				
 node_0687       	74.47	0		;				
 node_0688       	57.888278	0		;				
 node_0689       	56.281386	0		;				
 node_0690       	56.389712	0		;				
 node_0691       	50.506686	0		;				
 node_0692       	73.184489	0		;				
 node_0693       	68.390351	0		;				
 node_0694       	74.940906	0		;				
 node_0695       	76.468929	0		;				
 node_0696       	54.43486	0		;				
 node_0697       	76.21692	0		;				
 node_0698       	77.51	0		;				
 node_0699       	76.878532	0		;				
 node_0700       	76.18223	0		;				
 node_0701       	41.383704	0		;				
 node_0702       	73.917708	0		;				
 node_0703       	73.915232	0		;				
 node_0704       	73.919896	0		;				
 node_0705       	70.102911	0		;				
 node_0706       	54.038609	0		;				
 node_0707       	73.049864	0		;				
 node_0708       	18.527837	0		;				
 node_0709       	73.049812	0		;				
 node_0710       	53.66756	0		;				
 node_0711       	54.510244	0		;				
 node_0712       	53.749025	0		;				
 node_0713       	54.223321	0		;				
 node_0714       	54.213819	0		;				
 node_0715       	74.256699	0		;				
 node_0716       	74.841783	0		;				
 node_0717       	73.842164	0		;				
 node_0718       	76.977143	0		;				
 node_0719       	70.102325	0		;				
 node_0720       	70.101389	0		;				
 node_0721       	67.931386	0		;				
 node_0722       	56.993252	0		;				
 node_0723       	57.209884	0		;				
 node_0724       	54.599166	0		;				
 node_0725       	55.363185	0		;				
 node_0726       	75.275962	0		;				
 node_0727       	75.281649	0		;				
 node_0728       	67.943159	0		;				
 node_0729       	75.077069	0		;				
 node_0730       	56.30295	0		;				
 node_0731       	57.205262	0		;				
 node_0732       	57.211121	0		;				
 node_0733       	56.543599	0		;				
 node_0734       	54.599083	0		;				
 node_0735       	54.082979	0		;				
 node_0736       	56.299478	0		;				
 node_0737       	75.055736	0		;				
 node_0738       	56.693184	0		;				
 node_0739       	55.149849	0		;				
 node_0740       	65.41	0		;				
 node_0741       	65.41	0		;				
 node_0742       	73.26	0		;				
 node_0743       	73.26	0		;				
 node_0744       	74.99	0		;				
 node_0745       	74.99	0		;				
 node_0746       	73.05	0		;				
 node_0747       	73.05	0		;				
 node_0748       	71.84	0		;				
 node_0749       	71.84	0		;				
 node_0750       	67.34	0		;				
 node_0751       	67.34	0		;				
 node_0752       	66.72	0		;				
 node_0753       	66.72	0		;				
 node_0754       	67.54	0		;				
 node_0755       	67.54	0		;				
 node_0756       	68.81	0		;				
 node_0757       	68.81	0		;				
 node_0758       	68.38	0		;				
 node_0759       	68.38	0		;				
 node_0760       	68.38	0		;				
 node_0761       	68.38	0		;				
 node_0762       	68.6	0		;				
 node_0763       	68.6	0		;				
 node_0764       	68.81	0		;				
 node_0765       	68.81	0		;				
 node_0766       	68.81	0		;				
 node_0767       	68.81	0		;				
 node_0768       	68.69	0		;				
 node_0769       	68.69	0		;				
 node_0770       	68.67	0		;				
 node_0771       	68.67	0		;				
 node_0772       	68.57	0		;				
 node_0773       	68.57	0		;				
 node_0774       	70.37	0		;				
 node_0775       	70.37	0		;				
 node_0776       	67.64	0		;				
 node_0777       	67.64	0		;				
 node_0778       	36.16	0		;				
 node_0779       	36.16	0		;				
 node_0780       	37.21	0		;				
 node_0781       	37.21	0		;				
 node_0782       	49.58	0		;				
 node_0783       	49.58	0		;				
 node_0784       	41.64	0		;				
 node_0785       	41.64	0		;				
 node_0786       	41.75	0		;				
 node_0787       	41.75	0		;				
 node_0788       	43.68	0		;				
 node_0789       	43.68	0		;				
 node_0790       	44.7	0		;				
 node_0791       	44.7	0		;				
 node_0792       	36.96	0		;				
 node_0793       	36.96	0		;				
 node_0794       	45.64	0		;				
 node_0795       	45.64	0		;				
 node_0796       	45.48	0		;				
 node_0797       	45.48	0		;				
 node_0798       	41.64	0		;				
 node_0799       	41.64	0		;				